$ NASTRAN input file created by the Patran 2012 64-Bit input file
$ Normal Modes Analysis, Database
SOL 103
CEND
$ Direct Text Input for Global Case Control Data
TITLE = MSC.Nastran job created on 07-Sep-20 at 15:36:07
ECHO = NONE
RESVEC = NO
SUBCASE 1
$ Subcase name : Default
   SUBTITLE=Default
   METHOD = 1
   SPC = 2
   VECTOR(SORT1,REAL)=ALL
   SPCFORCES(SORT1,REAL)=ALL
BEGIN BULK
$ Direct Text Input for Bulk Data
PARAM    POST    0
PARAM   PRTMAXIM YES
EIGRL    1                       10      0
$ Elements and Element Properties for region : pro
PSHELL   1       1      2.       1               1
$ Pset: "pro" will be imported as: "pshell.1"
CQUAD4   1       1       1       2       13      12
CQUAD4   2       1       2       3       14      13
CQUAD4   3       1       3       4       15      14
CQUAD4   4       1       4       5       16      15
CQUAD4   5       1       5       6       17      16
CQUAD4   6       1       6       7       18      17
CQUAD4   7       1       7       8       19      18
CQUAD4   8       1       8       9       20      19
CQUAD4   9       1       9       10      21      20
CQUAD4   10      1       10      11      22      21
CQUAD4   11      1       12      13      24      23
CQUAD4   12      1       13      14      25      24
CQUAD4   13      1       14      15      26      25
CQUAD4   14      1       15      16      27      26
CQUAD4   15      1       16      17      28      27
CQUAD4   16      1       17      18      29      28
CQUAD4   17      1       18      19      30      29
CQUAD4   18      1       19      20      31      30
CQUAD4   19      1       20      21      32      31
CQUAD4   20      1       21      22      33      32
$ ... 180 like lines cut
$ Referenced Material Records
$ Material Record : ma
$ Description of Material : Date: 07-Sep-20           Time: 15:34:23
MAT1     1      2.1+11          .3      7650.
$ Nodes of the Entire Model
GRID     1               0.      0.      0.
GRID     2              1.       0.      0.
GRID     3              2.       0.      0.
GRID     4              3.       0.      0.
GRID     5              4.       0.      0.
GRID     6              5.       0.      0.
GRID     7              6.       0.      0.
GRID     8              7.       0.      0.
GRID     9              8.       0.      0.
GRID     10             9.       0.      0.
GRID     11             10.      0.      0.
GRID     12              0.     .999998  0.
GRID     13             1.      .999998  0.
GRID     14             2.      .999998  0.
GRID     15             3.      .999999  0.
GRID     16             4.      .999999  0.
GRID     17             5.      .999999  0.
GRID     18             6.      .999999  0.
GRID     19             7.      .999999  0.
GRID     20             8.      1.       0.
$ ... 211 like lines cut
$ Loads for Load Case : Default
SPCADD   2       1
$ Displacement Constraints of Load Set : dis
SPC1     1       123456  1       THRU    11
$ Referenced Coordinate Frames
ENDDATA
